[TITLE]
;;Project Title/Notes

[OPTIONS]
;;Option             Value
FLOW_UNITS           CMS
INFILTRATION         HORTON
FLOW_ROUTING         DYNWAVE
LINK_OFFSETS         DEPTH
MIN_SLOPE            0
ALLOW_PONDING        NO
SKIP_STEADY_STATE    NO

START_DATE           05/02/2018
START_TIME           00:01:00
REPORT_START_DATE    05/02/2018
REPORT_START_TIME    00:01:00
END_DATE             05/02/2018
END_TIME             01:59:00
SWEEP_START          01/01
SWEEP_END            12/31
DRY_DAYS             0
REPORT_STEP          00:01:00
WET_STEP             00:01:00
DRY_STEP             00:01:00
ROUTING_STEP         0:00:30 
RULE_STEP            00:00:00

INERTIAL_DAMPING     PARTIAL
NORMAL_FLOW_LIMITED  BOTH
FORCE_MAIN_EQUATION  H-W
VARIABLE_STEP        0.75
LENGTHENING_STEP     0
MIN_SURFAREA         12.557
MAX_TRIALS           8
HEAD_TOLERANCE       0.005
SYS_FLOW_TOL         5
LAT_FLOW_TOL         5
MINIMUM_STEP         0.5
THREADS              1

[EVAPORATION]
;;Data Source    Parameters
;;-------------- ----------------
CONSTANT         4.2
DRY_ONLY         NO

[RAINGAGES]
;;Name           Format    Interval SCF      Source    
;;-------------- --------- ------ ------ ----------
ylj1             VOLUME    0:01     1.0      TIMESERIES p=20a           

[SUBCATCHMENTS]
;;Name           Rain Gage        Outlet           Area     %Imperv  Width    %Slope   CurbLen  SnowPack        
;;-------------- ---------------- ---------------- -------- -------- -------- -------- -------- ----------------
S1               YLJ1             S2               0.9036   74       79       0.5      0                        
S2               YLJ1             S5               0.3511   40       47       0.5      0                        
S3               YLJ1             S5               0.3038   50       35       0.5      0                        
S4               YLJ1             S5               0.2726   50       41       0.5      0                        
S5               YLJ1             j01              0.2826   44       41       0.5      0                        
S6               YLJ1             j01              0.1719   55       33       0.5      0                        
S7               YLJ1             S6               0.1506   45       31       0.5      0                        
S8               YLJ1             j01              0.2308   40       38       0.5      0                        
S9               YLJ1             S8               0.3385   55       45       0.5      0                        
S10              YLJ1             j02              0.3808   80       43       0.5      0                        
S11              YLJ1             j02              0.7554   50       67       0.5      0                        
S12              YLJ1             S10              0.4011   82       45       0.5      0                        
S13              YLJ1             S11              0.4067   61       44       0.5      0                        
S14              YLJ1             S15              0.3796   47       48       0.5      0                        
S15              YLJ1             j02              0.5546   51       58       0.5      0                        
S16              YLJ1             j03              0.3425   75       46       0.5      0                        
S17              YLJ1             S16              0.2594   50       40       0.5      0                        
S18              YLJ1             j03              0.1404   64       31       0.5      0                        
S19              YLJ1             S18              0.1345   44       30       0.5      0                        
S34              YLJ1             j05              1.2452   5        83       0.5      0                        
S21              YLJ1             S31              0.5986   43       59       0.5      0                        
S22              YLJ1             S32              0.9837   60       79       0.5      0                        
S23              YLJ1             S33              0.8610   60       73       0.5      0                        
S24              YLJ1             S21              0.3640   75       48       0.5      0                        
S25              YLJ1             S24              0.4066   52       50       0.5      0                        
S26              YLJ1             S22              0.5517   60       58       0.5      0                        
S27              YLJ1             S23              0.4437   60       55       0.5      0                        
S28              YLJ1             S29              0.1529   60       32       0.5      0                        
S29              YLJ1             S30              0.2157   60       36       0.5      0                        
S30              YLJ1             S20              0.2377   60       39       0.5      0                        
S31              YLJ1             s32              0.2038   44       32       0.5      0                        
S32              YLJ1             j04              0.3312   50       45       0.5      0                        
S33              YLJ1             j04              0.4435   60       54       0.5      0                        
S20              YLJ1             j04              0.1892   60       33       0.5      0                        
S36              YLJ1             S35              0.2929   12       42       0.5      0                        
S37              YLJ1             S39              0.0839   1        23       0.5      0                        
S38              YLJ1             S39              0.0584   2        16       0.5      0                        
S39              YLJ1             S35              0.1535   1        31       0.5      0                        
S40              YLJ1             S34              0.08     0        23       0.5      0                        
S73              YLJ1             s42              0.1256   2        30       0.5      0                        
S42              YLJ1             pfk6             0.1819   8        33       0.5      0                        
S43              YLJ1             pfk6             0.1925   50       35       0.5      0                        
S44              YLJ1             pfk6             0.0932   20       24       0.5      0                        
S45              YLJ1             pfk6             0.3714   10       49       0.5      0                        
S46              YLJ1             pfk6             0.1517   0        31       0.5      0                        
S47              YLJ1             pfk6             0.4342   11       55       0.5      0                        
S48              YLJ1             S49              0.2501   9        40       0.5      0                        
S49              YLJ1             pfk6             0.1366   9        30       0.5      0                        
S50              YLJ1             pfk6             0.0541   0        19       0.5      0                        
S51              YLJ1             S50              0.1244   10       26       0.5      0                        
S52              YLJ1             pfk6             0.0599   0        19       0.5      0                        
S53              ylj1             pfk6             0.0812   0        23       0.5      0                        
S54              YLJ1             pfk6             0.0886   26       23       0.5      0                        
S55              YLJ1             S54              0.0535   28       18       0.5      0                        
S56              YLJ1             s57              0.0831   50       23       0.5      0                        
S57              YLJ1             pfk6             0.0584   0        19       0.5      0                        
S58              YLJ1             S59              0.4047   32       50       0.5      0                        
S59              YLJ1             pfk6             0.2827   10       40       0.5      0                        
S60              YLJ1             pfk6             0.3484   45       48       0.5      0                        
S61              YLJ1             pfk6             0.1600   50       32       0.5      0                        
S62              YLJ1             S61              0.1126   32       25       0.5      0                        
S63              YLJ1             S64              0.1761   20       33       0.5      0                        
S64              YLJ1             pfk6             0.1015   20       25       0.5      0                        
S65              YLJ1             S64              0.1649   20       32       0.5      0                        
S66              YLJ1             S67              0.0468   10       16       0.5      0                        
S67              YLJ1             pfk6             0.0563   0        19       0.5      0                        
S68              YLJ1             S69              0.0137   0        8        0.5      0                        
S69              YLJ1             pfk6             0.0703   20       26       0.5      0                        
S70              YLJ1             S69              0.0577   5        19       0.5      0                        
S71              YLJ1             S70              0.1564   5        32       0.5      0                        
S72              YLJ1             S70              0.0525   0        19       0.5      0                        
S35              YLJ1             j05              0.87     5        70       0.5      0                        
S41              YLJ1             S34              0.69     0        64       0.5      0                        

[SUBAREAS]
;;Subcatchment   N-Imperv   N-Perv     S-Imperv   S-Perv     PctZero    RouteTo    PctRouted 
;;-------------- ---------- ---------- ---------- ---------- ---------- ---------- ----------
S1               0.013      0.24       1.27       3.8        25         OUTLET    
S2               0.013      0.24       1.27       3.8        25         OUTLET    
S3               0.013      0.24       1.27       3.8        25         OUTLET    
S4               0.013      0.24       1.27       3.8        25         OUTLET    
S5               0.013      0.24       1.27       3.8        25         OUTLET    
S6               0.013      0.24       1.27       3.8        25         OUTLET    
S7               0.013      0.24       1.27       3.8        25         OUTLET    
S8               0.013      0.24       1.27       3.8        25         OUTLET    
S9               0.013      0.24       1.27       3.8        25         OUTLET    
S10              0.013      0.24       1.27       3.8        25         OUTLET    
S11              0.013      0.24       1.27       3.8        25         OUTLET    
S12              0.013      0.24       1.27       3.8        25         OUTLET    
S13              0.013      0.24       1.27       3.8        25         OUTLET    
S14              0.013      0.24       1.27       3.8        25         OUTLET    
S15              0.013      0.24       1.27       3.8        25         OUTLET    
S16              0.013      0.24       1.27       3.8        25         OUTLET    
S17              0.013      0.24       1.27       3.8        25         OUTLET    
S18              0.013      0.24       1.27       3.8        25         OUTLET    
S19              0.013      0.24       1.27       3.8        25         OUTLET    
S34              0.013      0.24       1.27       3.8        25         OUTLET    
S21              0.013      0.24       1.27       3.8        25         OUTLET    
S22              0.013      0.24       1.27       3.8        25         OUTLET    
S23              0.013      0.24       1.27       3.8        25         OUTLET    
S24              0.013      0.24       1.27       3.8        25         OUTLET    
S25              0.013      0.24       1.27       3.8        25         OUTLET    
S26              0.013      0.24       1.27       3.8        25         OUTLET    
S27              0.013      0.24       1.27       3.8        25         OUTLET    
S28              0.013      0.24       1.27       3.8        25         OUTLET    
S29              0.013      0.24       1.27       3.8        25         OUTLET    
S30              0.013      0.24       1.27       3.8        25         OUTLET    
S31              0.013      0.24       1.27       3.8        25         OUTLET    
S32              0.013      0.24       1.27       3.8        25         OUTLET    
S33              0.013      0.24       1.27       3.8        25         OUTLET    
S20              0.013      0.24       1.27       3.8        25         OUTLET    
S36              0.013      0.24       1.27       3.8        25         OUTLET    
S37              0.013      0.24       1.27       3.8        25         OUTLET    
S38              0.013      0.24       1.27       3.8        25         OUTLET    
S39              0.013      0.24       1.27       3.8        25         OUTLET    
S40              0.013      0.24       1.27       3.8        25         OUTLET    
S73              0.013      0.24       1.27       3.8        25         OUTLET    
S42              0.013      0.24       1.27       3.8        25         OUTLET    
S43              0.013      0.24       1.27       3.8        25         OUTLET    
S44              0.013      0.24       1.27       3.8        25         OUTLET    
S45              0.013      0.24       1.27       3.8        25         OUTLET    
S46              0.013      0.24       1.27       3.8        25         OUTLET    
S47              0.013      0.24       1.27       3.8        25         OUTLET    
S48              0.013      0.24       1.27       3.8        25         OUTLET    
S49              0.013      0.24       1.27       3.8        25         OUTLET    
S50              0.013      0.24       1.27       3.8        25         OUTLET    
S51              0.013      0.24       1.27       3.8        25         OUTLET    
S52              0.013      0.24       1.27       3.8        25         OUTLET    
S53              0.013      0.24       1.27       3.8        25         OUTLET    
S54              0.013      0.24       1.27       3.8        25         OUTLET    
S55              0.013      0.24       1.27       3.8        25         OUTLET    
S56              0.013      0.24       1.27       3.8        25         OUTLET    
S57              0.013      0.24       1.27       3.8        25         OUTLET    
S58              0.013      0.24       1.27       3.8        25         OUTLET    
S59              0.013      0.24       1.27       3.8        25         OUTLET    
S60              0.013      0.24       1.27       3.8        25         OUTLET    
S61              0.013      0.24       1.27       3.8        25         OUTLET    
S62              0.013      0.24       1.27       3.8        25         OUTLET    
S63              0.013      0.24       1.27       3.8        25         OUTLET    
S64              0.013      0.24       1.27       3.8        25         OUTLET    
S65              0.013      0.24       1.27       3.8        25         OUTLET    
S66              0.013      0.24       1.27       3.8        25         OUTLET    
S67              0.013      0.24       1.27       3.8        25         OUTLET    
S68              0.013      0.24       1.27       3.8        25         OUTLET    
S69              0.013      0.24       1.27       3.8        25         OUTLET    
S70              0.013      0.24       1.27       3.8        25         OUTLET    
S71              0.013      0.24       1.27       3.8        25         OUTLET    
S72              0.013      0.24       1.27       3.8        25         OUTLET    
S35              0.013      0.24       1.27       3.8        25         OUTLET    
S41              0.013      0.24       1.27       3.8        25         OUTLET    

[INFILTRATION]
;;Subcatchment   Param1     Param2     Param3     Param4     Param5    
;;-------------- ---------- ---------- ---------- ---------- ----------
S1               76.2       2.16       4.14       7          0         
S2               76.2       2.16       4.14       7          0         
S3               76.2       2.16       4.14       7          0         
S4               76.2       2.16       4.14       7          0         
S5               76.2       2.16       4.14       7          0         
S6               76.2       2.16       4.14       7          0         
S7               76.2       2.16       4.14       7          0         
S8               76.2       2.16       4.14       7          0         
S9               76.2       2.16       4.14       7          0         
S10              76.2       2.16       4.14       7          0         
S11              76.2       2.16       4.14       7          0         
S12              76.2       2.16       4.14       7          0         
S13              76.2       2.16       4.14       7          0         
S14              76.2       2.16       4.14       7          0         
S15              76.2       2.16       4.14       7          0         
S16              76.2       2.16       4.14       7          0         
S17              76.2       2.16       4.14       7          0         
S18              76.2       2.16       4.14       7          0         
S19              76.2       2.16       4.14       7          0         
S34              76.2       2.16       4.14       7          0         
S21              76.2       2.16       4.14       7          0         
S22              76.2       2.16       4.14       7          0         
S23              76.2       2.16       4.14       7          0         
S24              76.2       2.16       4.14       7          0         
S25              76.2       2.16       4.14       7          0         
S26              76.2       2.16       4.14       7          0         
S27              76.2       2.16       4.14       7          0         
S28              76.2       2.16       4.14       7          0         
S29              76.2       2.16       4.14       7          0         
S30              76.2       2.16       4.14       7          0         
S31              76.2       2.16       4.14       7          0         
S32              76.2       2.16       4.14       7          0         
S33              76.2       2.16       4.14       7          0         
S20              76.2       2.16       4.14       7          0         
S36              76.2       2.16       4.14       7          0         
S37              76.2       2.16       4.14       7          0         
S38              76.2       2.16       4.14       7          0         
S39              76.2       2.16       4.14       7          0         
S40              76.2       2.16       4.14       7          0         
S73              76.2       2.16       4.14       7          0         
S42              76.2       2.16       4.14       7          0         
S43              76.2       2.16       4.14       7          0         
S44              76.2       2.16       4.14       7          0         
S45              76.2       2.16       4.14       7          0         
S46              76.2       2.16       4.14       7          0         
S47              76.2       2.16       4.14       7          0         
S48              76.2       2.16       4.14       7          0         
S49              76.2       2.16       4.14       7          0         
S50              76.2       2.16       4.14       7          0         
S51              76.2       2.16       4.14       7          0         
S52              76.2       2.16       4.14       7          0         
S53              76.2       2.16       4.14       7          0         
S54              76.2       2.16       4.14       7          0         
S55              76.2       2.16       4.14       7          0         
S56              76.2       2.16       4.14       7          0         
S57              76.2       2.16       4.14       7          0         
S58              76.2       2.16       4.14       7          0         
S59              76.2       2.16       4.14       7          0         
S60              76.2       2.16       4.14       7          0         
S61              76.2       2.16       4.14       7          0         
S62              76.2       2.16       4.14       7          0         
S63              76.2       2.16       4.14       7          0         
S64              76.2       2.16       4.14       7          0         
S65              76.2       2.16       4.14       7          0         
S66              76.2       2.16       4.14       7          0         
S67              76.2       2.16       4.14       7          0         
S68              76.2       2.16       4.14       7          0         
S69              76.2       2.16       4.14       7          0         
S70              76.2       2.16       4.14       7          0         
S71              76.2       2.16       4.14       7          0         
S72              76.2       2.16       4.14       7          0         
S35              76.2       2.16       4.14       7          0         
S41              76.2       2.16       4.14       7          0         

[LID_CONTROLS]
;;Name           Type/Layer Parameters
;;-------------- ---------- ----------
BR               BC
BR               SURFACE    200        0.8        0.1        1.0        5         
BR               SOIL       500        0.5        0.2        0.1        0.5        10.0       87        
BR               STORAGE    650        0.75       10         0          NO        
BR               DRAIN      0          0.5        6          6          0          0                    

RG               RG
RG               SURFACE    200        0.8        0.1        1.0        5         
RG               SOIL       300        0.5        0.2        0.1        0.5        10.0       80        
RG               STORAGE    0          0.75       0.5        0          NO        

VS               VS
VS               SURFACE    200        0.8        0.1        1.0        5         

PP               PP
PP               SURFACE    90         0.0        0.1        1.0        5         
PP               PAVEMENT   100        0.15       0          100        0          0          0         
PP               STORAGE    200        0.75       10         0          NO        
PP               DRAIN      0          0.5        6          6          0          0                    

[LID_USAGE]
;;Subcatchment   LID Process      Number  Area       Width      InitSat    FromImp    ToPerv     RptFile                  DrainTo          FromPerv  
;;-------------- ---------------- ------- ---------- ---------- ---------- ---------- ---------- ------------------------ ---------------- ----------
S1               BR               2       200        12         30         30         0          *                        *                0               
S1               PP               1       3070       50         40         60         0          *                        *                0               
S1               PP               1       400        23         30         10         0          *                        *                0               
S2               BR               1       400        18         30         30         0          *                        *                0               
S2               PP               1       400        16         30         30         0          *                        *                0               
S3               PP               1       2000       40         30         30         0          *                        *                0               
S5               PP               1       100        30         30         0          0          *                        *                0               
S6               RG               1       200        12         30         30         0          *                        *                0               
S7               BR               1       100        8          30         30         0          *                        *                0               
S8               RG               1       200        12         100        100        0          *                        *                0               
S9               BR               1       100        8          30         30         0          *                        *                0               
S9               PP               1       1630       30         30         30         0          *                        *                0               
S10              PP               1       890        24         30         30         0          *                        *                0               
S11              BR               4       200        12         30         30         0          *                        *                0               
S11              PP               1       1055       0          0          0          0          *                        *                0               
S12              BR               1       200        12         30         30         0          *                        *                0               
S12              PP               1       2384       40         30         30         0          *                        *                0               
S13              BR               2       200        18         30         30         0          *                        *                0               
S13              PP               1       1444       19         30         30         0          *                        *                0               
S14              BR               1       200        12         30         30         0          *                        *                0               
S14              PP               1       2547       50         30         30         0          *                        *                0               
S15              PP               1       2394       40         30         30         0          *                        *                0               
S16              BR               1       400        0          0          0          0          *                        *                0               
S17              PP               1       400        0          0          0          0          *                        *                0               
S18              BR               1       200        0          0          0          0          *                        *                0               
S19              PP               1       400        0          0          0          0          *                        *                0               
S21              RG               1       800        25         30         30         0          *                        *                0               
S22              RG               1       1200       40         0          0          0          *                        *                0               
S22              BR               1       200        12         30         30         0          *                        *                0               
S22              PP               1       200        12         30         30         0          *                        *                0               
S23              PP               1       800        22         30         30         0          *                        *                0               
S23              PP               2       200        8          30         30         0          *                        *                0               
S24              BR               1       200        12         30         30         0          *                        *                0               
S24              PP               1       200        12         30         30         0          *                        *                0               
S25              BR               1       200        12         30         30         0          *                        *                0               
S25              PP               1       200        12         30         30         0          *                        *                0               
S26              BR               1       200        12         30         30         0          *                        *                0               
S26              PP               1       200        12         30         30         0          *                        *                0               
S28              BR               1       100        8          30         30         0          *                        *                0               
S28              PP               1       100        8          30         30         0          *                        *                0               
S29              BR               1       100        8          30         30         0          *                        *                0               
S29              PP               1       100        8          30         30         0          *                        *                0               
S30              BR               1       200        12         30         30         0          *                        *                0               
S30              PP               1       200        12         30         30         0          *                        *                0               